data_image0
_chemical_formula_structural       LaTiO3LaTiO3LaTiO3LaTiO3LaTiO3LaTiO3LaTiO3LaTiO3LaTiO3LaTiO3LaTiO3LaTiO3LaTiO3LaTiO3LaTiO3LaTiO3LaTiO3LaTiO3LaTiO3LaTiO3LaTiO3LaTiO3LaTiO3LaTiO3LaTiO3LaTiO3LaTiO3LaTiO3LaTiO3LaTiO3LaTiO3LaTiO3LaTiO3LaTiO3LaTiO3LaTiO3LaTiO3LaTiO3LaTiO3LaTiO3SrTiO3SrTiO3SrTiO3SrTiO3SrTiO3SrTiO3SrTiO3SrTiO3SrTiO3SrTiO3SrTiO3SrTiO3SrTiO3SrTiO3SrTiO3SrTiO3SrTiO3SrTiO3SrTiO3SrTiO3SrTiO3SrTiO3SrTiO3SrTiO3SrTiO3SrTiO3SrTiO3SrTiO3SrTiO3SrTiO3SrTiO3SrTiO3SrTiO3SrTiO3SrTiO3SrTiO3SrTiO3SrTiO3SrTiO3SrTiO3LaTiO3LaTiO3LaTiO3LaTiO3LaTiO3LaTiO3LaTiO3LaTiO3LaTiO3LaTiO3LaTiO3LaTiO3LaTiO3LaTiO3LaTiO3LaTiO3LaTiO3LaTiO3LaTiO3LaTiO3LaTiO3LaTiO3LaTiO3LaTiO3LaTiO3LaTiO3LaTiO3LaTiO3LaTiO3LaTiO3LaTiO3LaTiO3LaTiO3LaTiO3LaTiO3LaTiO3LaTiO3LaTiO3LaTiO3LaTiO3SrTiO3SrTiO3SrTiO3SrTiO3SrTiO3SrTiO3SrTiO3SrTiO3SrTiO3SrTiO3SrTiO3SrTiO3SrTiO3SrTiO3SrTiO3SrTiO3SrTiO3SrTiO3SrTiO3SrTiO3SrTiO3SrTiO3SrTiO3SrTiO3SrTiO3SrTiO3SrTiO3SrTiO3SrTiO3SrTiO3SrTiO3SrTiO3SrTiO3SrTiO3SrTiO3SrTiO3SrTiO3SrTiO3SrTiO3SrTiO3LaTiO3LaTiO3LaTiO3LaTiO3LaTiO3LaTiO3LaTiO3LaTiO3LaTiO3LaTiO3LaTiO3LaTiO3LaTiO3LaTiO3LaTiO3LaTiO3LaTiO3LaTiO3LaTiO3LaTiO3LaTiO3LaTiO3LaTiO3LaTiO3LaTiO3LaTiO3LaTiO3LaTiO3LaTiO3LaTiO3LaTiO3LaTiO3LaTiO3LaTiO3LaTiO3LaTiO3LaTiO3LaTiO3LaTiO3LaTiO3SrTiO3SrTiO3SrTiO3SrTiO3SrTiO3SrTiO3SrTiO3SrTiO3SrTiO3SrTiO3SrTiO3SrTiO3SrTiO3SrTiO3SrTiO3SrTiO3SrTiO3SrTiO3SrTiO3SrTiO3SrTiO3SrTiO3SrTiO3SrTiO3SrTiO3SrTiO3SrTiO3SrTiO3SrTiO3SrTiO3SrTiO3SrTiO3SrTiO3SrTiO3SrTiO3SrTiO3SrTiO3SrTiO3SrTiO3SrTiO3
_chemical_formula_sum              "La120 Ti240 O720 Sr120"
_cell_length_a       16.5675
_cell_length_b       15.62
_cell_length_c       65.225
_cell_angle_alpha    90
_cell_angle_beta     90
_cell_angle_gamma    90

_space_group_name_H-M_alt    "P 1"
_space_group_IT_number       1

loop_
  _space_group_symop_operation_xyz
  'x, y, z'

loop_
  _atom_site_type_symbol
  _atom_site_label
  _atom_site_symmetry_multiplicity
  _atom_site_fract_x
  _atom_site_fract_y
  _atom_site_fract_z
  _atom_site_occupancy
  La  La1       1.0  0.16667  0.12500  0.16133  1.0000
  Ti  Ti1       1.0  0.00000  0.00000  0.07666  1.0000
  O   O1        1.0  0.00000  0.12500  0.07666  1.0000
  O   O2        1.0  0.25000  0.00000  0.09782  1.0000
  O   O3        1.0  0.08333  0.00000  0.09782  1.0000
  La  La2       1.0  0.33333  0.12500  0.11899  1.0000
  Ti  Ti2       1.0  0.16667  0.00000  0.11899  1.0000
  O   O4        1.0  0.16667  0.12500  0.11899  1.0000
  O   O5        1.0  0.08333  0.00000  0.14016  1.0000
  O   O6        1.0  0.25000  0.00000  0.14016  1.0000
  La  La3       1.0  0.16667  0.12500  0.24599  1.0000
  Ti  Ti3       1.0  0.00000  0.00000  0.16133  1.0000
  O   O7        1.0  0.00000  0.12500  0.16133  1.0000
  O   O8        1.0  0.25000  0.00000  0.18249  1.0000
  O   O9        1.0  0.08333  0.00000  0.18249  1.0000
  La  La4       1.0  0.33333  0.12500  0.20366  1.0000
  Ti  Ti4       1.0  0.16667  0.00000  0.20366  1.0000
  O   O10       1.0  0.16667  0.12500  0.20366  1.0000
  O   O11       1.0  0.08333  0.00000  0.22483  1.0000
  O   O12       1.0  0.25000  0.00000  0.22483  1.0000
  La  La5       1.0  0.16667  0.12500  0.33066  1.0000
  Ti  Ti5       1.0  0.00000  0.00000  0.24599  1.0000
  O   O13       1.0  0.00000  0.12500  0.24599  1.0000
  O   O14       1.0  0.25000  0.00000  0.26716  1.0000
  O   O15       1.0  0.08333  0.00000  0.26716  1.0000
  La  La6       1.0  0.33333  0.12500  0.28833  1.0000
  Ti  Ti6       1.0  0.16667  0.00000  0.28833  1.0000
  O   O16       1.0  0.16667  0.12500  0.28833  1.0000
  O   O17       1.0  0.08333  0.00000  0.30950  1.0000
  O   O18       1.0  0.25000  0.00000  0.30950  1.0000
  La  La7       1.0  0.16667  0.12500  0.41533  1.0000
  Ti  Ti7       1.0  0.00000  0.00000  0.33066  1.0000
  O   O19       1.0  0.00000  0.12500  0.33066  1.0000
  O   O20       1.0  0.25000  0.00000  0.35183  1.0000
  O   O21       1.0  0.08333  0.00000  0.35183  1.0000
  La  La8       1.0  0.33333  0.12500  0.37300  1.0000
  Ti  Ti8       1.0  0.16667  0.00000  0.37300  1.0000
  O   O22       1.0  0.16667  0.12500  0.37300  1.0000
  O   O23       1.0  0.08333  0.00000  0.39416  1.0000
  O   O24       1.0  0.25000  0.00000  0.39416  1.0000
  La  La9       1.0  0.16667  0.12500  0.50000  1.0000
  Ti  Ti9       1.0  0.00000  0.00000  0.41533  1.0000
  O   O25       1.0  0.00000  0.12500  0.41533  1.0000
  O   O26       1.0  0.25000  0.00000  0.43650  1.0000
  O   O27       1.0  0.08333  0.00000  0.43650  1.0000
  La  La10      1.0  0.33333  0.12500  0.45767  1.0000
  Ti  Ti10      1.0  0.16667  0.00000  0.45767  1.0000
  O   O28       1.0  0.16667  0.12500  0.45767  1.0000
  O   O29       1.0  0.08333  0.00000  0.47883  1.0000
  O   O30       1.0  0.25000  0.00000  0.47883  1.0000
  La  La11      1.0  0.16667  0.12500  0.58467  1.0000
  Ti  Ti11      1.0  0.00000  0.00000  0.50000  1.0000
  O   O31       1.0  0.00000  0.12500  0.50000  1.0000
  O   O32       1.0  0.25000  0.00000  0.52117  1.0000
  O   O33       1.0  0.08333  0.00000  0.52117  1.0000
  La  La12      1.0  0.33333  0.12500  0.54233  1.0000
  Ti  Ti12      1.0  0.16667  0.00000  0.54233  1.0000
  O   O34       1.0  0.16667  0.12500  0.54233  1.0000
  O   O35       1.0  0.08333  0.00000  0.56350  1.0000
  O   O36       1.0  0.25000  0.00000  0.56350  1.0000
  La  La13      1.0  0.16667  0.12500  0.66934  1.0000
  Ti  Ti13      1.0  0.00000  0.00000  0.58467  1.0000
  O   O37       1.0  0.00000  0.12500  0.58467  1.0000
  O   O38       1.0  0.25000  0.00000  0.60584  1.0000
  O   O39       1.0  0.08333  0.00000  0.60584  1.0000
  La  La14      1.0  0.33333  0.12500  0.62700  1.0000
  Ti  Ti14      1.0  0.16667  0.00000  0.62700  1.0000
  O   O40       1.0  0.16667  0.12500  0.62700  1.0000
  O   O41       1.0  0.08333  0.00000  0.64817  1.0000
  O   O42       1.0  0.25000  0.00000  0.64817  1.0000
  La  La15      1.0  0.16667  0.12500  0.75401  1.0000
  Ti  Ti15      1.0  0.00000  0.00000  0.66934  1.0000
  O   O43       1.0  0.00000  0.12500  0.66934  1.0000
  O   O44       1.0  0.25000  0.00000  0.69050  1.0000
  O   O45       1.0  0.08333  0.00000  0.69050  1.0000
  La  La16      1.0  0.33333  0.12500  0.71167  1.0000
  Ti  Ti16      1.0  0.16667  0.00000  0.71167  1.0000
  O   O46       1.0  0.16667  0.12500  0.71167  1.0000
  O   O47       1.0  0.08333  0.00000  0.73284  1.0000
  O   O48       1.0  0.25000  0.00000  0.73284  1.0000
  La  La17      1.0  0.16667  0.12500  0.83867  1.0000
  Ti  Ti17      1.0  0.00000  0.00000  0.75401  1.0000
  O   O49       1.0  0.00000  0.12500  0.75401  1.0000
  O   O50       1.0  0.25000  0.00000  0.77517  1.0000
  O   O51       1.0  0.08333  0.00000  0.77517  1.0000
  La  La18      1.0  0.33333  0.12500  0.79634  1.0000
  Ti  Ti18      1.0  0.16667  0.00000  0.79634  1.0000
  O   O52       1.0  0.16667  0.12500  0.79634  1.0000
  O   O53       1.0  0.08333  0.00000  0.81751  1.0000
  O   O54       1.0  0.25000  0.00000  0.81751  1.0000
  La  La19      1.0  0.16667  0.12500  0.92334  1.0000
  Ti  Ti19      1.0  0.00000  0.00000  0.83867  1.0000
  O   O55       1.0  0.00000  0.12500  0.83867  1.0000
  O   O56       1.0  0.25000  0.00000  0.85984  1.0000
  O   O57       1.0  0.08333  0.00000  0.85984  1.0000
  La  La20      1.0  0.33333  0.12500  0.88101  1.0000
  Ti  Ti20      1.0  0.16667  0.00000  0.88101  1.0000
  O   O58       1.0  0.16667  0.12500  0.88101  1.0000
  O   O59       1.0  0.08333  0.00000  0.90218  1.0000
  O   O60       1.0  0.25000  0.00000  0.90218  1.0000
  La  La21      1.0  0.16667  0.37500  0.16133  1.0000
  Ti  Ti21      1.0  0.00000  0.25000  0.07666  1.0000
  O   O61       1.0  0.00000  0.37500  0.07666  1.0000
  O   O62       1.0  0.25000  0.25000  0.09782  1.0000
  O   O63       1.0  0.08333  0.25000  0.09782  1.0000
  La  La22      1.0  0.33333  0.37500  0.11899  1.0000
  Ti  Ti22      1.0  0.16667  0.25000  0.11899  1.0000
  O   O64       1.0  0.16667  0.37500  0.11899  1.0000
  O   O65       1.0  0.08333  0.25000  0.14016  1.0000
  O   O66       1.0  0.25000  0.25000  0.14016  1.0000
  La  La23      1.0  0.16667  0.37500  0.24599  1.0000
  Ti  Ti23      1.0  0.00000  0.25000  0.16133  1.0000
  O   O67       1.0  0.00000  0.37500  0.16133  1.0000
  O   O68       1.0  0.25000  0.25000  0.18249  1.0000
  O   O69       1.0  0.08333  0.25000  0.18249  1.0000
  La  La24      1.0  0.33333  0.37500  0.20366  1.0000
  Ti  Ti24      1.0  0.16667  0.25000  0.20366  1.0000
  O   O70       1.0  0.16667  0.37500  0.20366  1.0000
  O   O71       1.0  0.08333  0.25000  0.22483  1.0000
  O   O72       1.0  0.25000  0.25000  0.22483  1.0000
  La  La25      1.0  0.16667  0.37500  0.33066  1.0000
  Ti  Ti25      1.0  0.00000  0.25000  0.24599  1.0000
  O   O73       1.0  0.00000  0.37500  0.24599  1.0000
  O   O74       1.0  0.25000  0.25000  0.26716  1.0000
  O   O75       1.0  0.08333  0.25000  0.26716  1.0000
  La  La26      1.0  0.33333  0.37500  0.28833  1.0000
  Ti  Ti26      1.0  0.16667  0.25000  0.28833  1.0000
  O   O76       1.0  0.16667  0.37500  0.28833  1.0000
  O   O77       1.0  0.08333  0.25000  0.30950  1.0000
  O   O78       1.0  0.25000  0.25000  0.30950  1.0000
  La  La27      1.0  0.16667  0.37500  0.41533  1.0000
  Ti  Ti27      1.0  0.00000  0.25000  0.33066  1.0000
  O   O79       1.0  0.00000  0.37500  0.33066  1.0000
  O   O80       1.0  0.25000  0.25000  0.35183  1.0000
  O   O81       1.0  0.08333  0.25000  0.35183  1.0000
  La  La28      1.0  0.33333  0.37500  0.37300  1.0000
  Ti  Ti28      1.0  0.16667  0.25000  0.37300  1.0000
  O   O82       1.0  0.16667  0.37500  0.37300  1.0000
  O   O83       1.0  0.08333  0.25000  0.39416  1.0000
  O   O84       1.0  0.25000  0.25000  0.39416  1.0000
  La  La29      1.0  0.16667  0.37500  0.50000  1.0000
  Ti  Ti29      1.0  0.00000  0.25000  0.41533  1.0000
  O   O85       1.0  0.00000  0.37500  0.41533  1.0000
  O   O86       1.0  0.25000  0.25000  0.43650  1.0000
  O   O87       1.0  0.08333  0.25000  0.43650  1.0000
  La  La30      1.0  0.33333  0.37500  0.45767  1.0000
  Ti  Ti30      1.0  0.16667  0.25000  0.45767  1.0000
  O   O88       1.0  0.16667  0.37500  0.45767  1.0000
  O   O89       1.0  0.08333  0.25000  0.47883  1.0000
  O   O90       1.0  0.25000  0.25000  0.47883  1.0000
  La  La31      1.0  0.16667  0.37500  0.58467  1.0000
  Ti  Ti31      1.0  0.00000  0.25000  0.50000  1.0000
  O   O91       1.0  0.00000  0.37500  0.50000  1.0000
  O   O92       1.0  0.25000  0.25000  0.52117  1.0000
  O   O93       1.0  0.08333  0.25000  0.52117  1.0000
  La  La32      1.0  0.33333  0.37500  0.54233  1.0000
  Ti  Ti32      1.0  0.16667  0.25000  0.54233  1.0000
  O   O94       1.0  0.16667  0.37500  0.54233  1.0000
  O   O95       1.0  0.08333  0.25000  0.56350  1.0000
  O   O96       1.0  0.25000  0.25000  0.56350  1.0000
  La  La33      1.0  0.16667  0.37500  0.66934  1.0000
  Ti  Ti33      1.0  0.00000  0.25000  0.58467  1.0000
  O   O97       1.0  0.00000  0.37500  0.58467  1.0000
  O   O98       1.0  0.25000  0.25000  0.60584  1.0000
  O   O99       1.0  0.08333  0.25000  0.60584  1.0000
  La  La34      1.0  0.33333  0.37500  0.62700  1.0000
  Ti  Ti34      1.0  0.16667  0.25000  0.62700  1.0000
  O   O100      1.0  0.16667  0.37500  0.62700  1.0000
  O   O101      1.0  0.08333  0.25000  0.64817  1.0000
  O   O102      1.0  0.25000  0.25000  0.64817  1.0000
  La  La35      1.0  0.16667  0.37500  0.75401  1.0000
  Ti  Ti35      1.0  0.00000  0.25000  0.66934  1.0000
  O   O103      1.0  0.00000  0.37500  0.66934  1.0000
  O   O104      1.0  0.25000  0.25000  0.69050  1.0000
  O   O105      1.0  0.08333  0.25000  0.69050  1.0000
  La  La36      1.0  0.33333  0.37500  0.71167  1.0000
  Ti  Ti36      1.0  0.16667  0.25000  0.71167  1.0000
  O   O106      1.0  0.16667  0.37500  0.71167  1.0000
  O   O107      1.0  0.08333  0.25000  0.73284  1.0000
  O   O108      1.0  0.25000  0.25000  0.73284  1.0000
  La  La37      1.0  0.16667  0.37500  0.83867  1.0000
  Ti  Ti37      1.0  0.00000  0.25000  0.75401  1.0000
  O   O109      1.0  0.00000  0.37500  0.75401  1.0000
  O   O110      1.0  0.25000  0.25000  0.77517  1.0000
  O   O111      1.0  0.08333  0.25000  0.77517  1.0000
  La  La38      1.0  0.33333  0.37500  0.79634  1.0000
  Ti  Ti38      1.0  0.16667  0.25000  0.79634  1.0000
  O   O112      1.0  0.16667  0.37500  0.79634  1.0000
  O   O113      1.0  0.08333  0.25000  0.81751  1.0000
  O   O114      1.0  0.25000  0.25000  0.81751  1.0000
  La  La39      1.0  0.16667  0.37500  0.92334  1.0000
  Ti  Ti39      1.0  0.00000  0.25000  0.83867  1.0000
  O   O115      1.0  0.00000  0.37500  0.83867  1.0000
  O   O116      1.0  0.25000  0.25000  0.85984  1.0000
  O   O117      1.0  0.08333  0.25000  0.85984  1.0000
  La  La40      1.0  0.33333  0.37500  0.88101  1.0000
  Ti  Ti40      1.0  0.16667  0.25000  0.88101  1.0000
  O   O118      1.0  0.16667  0.37500  0.88101  1.0000
  O   O119      1.0  0.08333  0.25000  0.90218  1.0000
  O   O120      1.0  0.25000  0.25000  0.90218  1.0000
  Sr  Sr1       1.0  0.16667  0.62500  0.16133  1.0000
  Ti  Ti41      1.0  0.00000  0.50000  0.07666  1.0000
  O   O121      1.0  0.00000  0.62500  0.07666  1.0000
  O   O122      1.0  0.25000  0.50000  0.09782  1.0000
  O   O123      1.0  0.08333  0.50000  0.09782  1.0000
  Sr  Sr2       1.0  0.33333  0.62500  0.11899  1.0000
  Ti  Ti42      1.0  0.16667  0.50000  0.11899  1.0000
  O   O124      1.0  0.16667  0.62500  0.11899  1.0000
  O   O125      1.0  0.08333  0.50000  0.14016  1.0000
  O   O126      1.0  0.25000  0.50000  0.14016  1.0000
  Sr  Sr3       1.0  0.16667  0.62500  0.24599  1.0000
  Ti  Ti43      1.0  0.00000  0.50000  0.16133  1.0000
  O   O127      1.0  0.00000  0.62500  0.16133  1.0000
  O   O128      1.0  0.25000  0.50000  0.18249  1.0000
  O   O129      1.0  0.08333  0.50000  0.18249  1.0000
  Sr  Sr4       1.0  0.33333  0.62500  0.20366  1.0000
  Ti  Ti44      1.0  0.16667  0.50000  0.20366  1.0000
  O   O130      1.0  0.16667  0.62500  0.20366  1.0000
  O   O131      1.0  0.08333  0.50000  0.22483  1.0000
  O   O132      1.0  0.25000  0.50000  0.22483  1.0000
  Sr  Sr5       1.0  0.16667  0.62500  0.33066  1.0000
  Ti  Ti45      1.0  0.00000  0.50000  0.24599  1.0000
  O   O133      1.0  0.00000  0.62500  0.24599  1.0000
  O   O134      1.0  0.25000  0.50000  0.26716  1.0000
  O   O135      1.0  0.08333  0.50000  0.26716  1.0000
  Sr  Sr6       1.0  0.33333  0.62500  0.28833  1.0000
  Ti  Ti46      1.0  0.16667  0.50000  0.28833  1.0000
  O   O136      1.0  0.16667  0.62500  0.28833  1.0000
  O   O137      1.0  0.08333  0.50000  0.30950  1.0000
  O   O138      1.0  0.25000  0.50000  0.30950  1.0000
  Sr  Sr7       1.0  0.16667  0.62500  0.41533  1.0000
  Ti  Ti47      1.0  0.00000  0.50000  0.33066  1.0000
  O   O139      1.0  0.00000  0.62500  0.33066  1.0000
  O   O140      1.0  0.25000  0.50000  0.35183  1.0000
  O   O141      1.0  0.08333  0.50000  0.35183  1.0000
  Sr  Sr8       1.0  0.33333  0.62500  0.37300  1.0000
  Ti  Ti48      1.0  0.16667  0.50000  0.37300  1.0000
  O   O142      1.0  0.16667  0.62500  0.37300  1.0000
  O   O143      1.0  0.08333  0.50000  0.39416  1.0000
  O   O144      1.0  0.25000  0.50000  0.39416  1.0000
  Sr  Sr9       1.0  0.16667  0.62500  0.50000  1.0000
  Ti  Ti49      1.0  0.00000  0.50000  0.41533  1.0000
  O   O145      1.0  0.00000  0.62500  0.41533  1.0000
  O   O146      1.0  0.25000  0.50000  0.43650  1.0000
  O   O147      1.0  0.08333  0.50000  0.43650  1.0000
  Sr  Sr10      1.0  0.33333  0.62500  0.45767  1.0000
  Ti  Ti50      1.0  0.16667  0.50000  0.45767  1.0000
  O   O148      1.0  0.16667  0.62500  0.45767  1.0000
  O   O149      1.0  0.08333  0.50000  0.47883  1.0000
  O   O150      1.0  0.25000  0.50000  0.47883  1.0000
  Sr  Sr11      1.0  0.16667  0.62500  0.58467  1.0000
  Ti  Ti51      1.0  0.00000  0.50000  0.50000  1.0000
  O   O151      1.0  0.00000  0.62500  0.50000  1.0000
  O   O152      1.0  0.25000  0.50000  0.52117  1.0000
  O   O153      1.0  0.08333  0.50000  0.52117  1.0000
  Sr  Sr12      1.0  0.33333  0.62500  0.54233  1.0000
  Ti  Ti52      1.0  0.16667  0.50000  0.54233  1.0000
  O   O154      1.0  0.16667  0.62500  0.54233  1.0000
  O   O155      1.0  0.08333  0.50000  0.56350  1.0000
  O   O156      1.0  0.25000  0.50000  0.56350  1.0000
  Sr  Sr13      1.0  0.16667  0.62500  0.66934  1.0000
  Ti  Ti53      1.0  0.00000  0.50000  0.58467  1.0000
  O   O157      1.0  0.00000  0.62500  0.58467  1.0000
  O   O158      1.0  0.25000  0.50000  0.60584  1.0000
  O   O159      1.0  0.08333  0.50000  0.60584  1.0000
  Sr  Sr14      1.0  0.33333  0.62500  0.62700  1.0000
  Ti  Ti54      1.0  0.16667  0.50000  0.62700  1.0000
  O   O160      1.0  0.16667  0.62500  0.62700  1.0000
  O   O161      1.0  0.08333  0.50000  0.64817  1.0000
  O   O162      1.0  0.25000  0.50000  0.64817  1.0000
  Sr  Sr15      1.0  0.16667  0.62500  0.75401  1.0000
  Ti  Ti55      1.0  0.00000  0.50000  0.66934  1.0000
  O   O163      1.0  0.00000  0.62500  0.66934  1.0000
  O   O164      1.0  0.25000  0.50000  0.69050  1.0000
  O   O165      1.0  0.08333  0.50000  0.69050  1.0000
  Sr  Sr16      1.0  0.33333  0.62500  0.71167  1.0000
  Ti  Ti56      1.0  0.16667  0.50000  0.71167  1.0000
  O   O166      1.0  0.16667  0.62500  0.71167  1.0000
  O   O167      1.0  0.08333  0.50000  0.73284  1.0000
  O   O168      1.0  0.25000  0.50000  0.73284  1.0000
  Sr  Sr17      1.0  0.16667  0.62500  0.83867  1.0000
  Ti  Ti57      1.0  0.00000  0.50000  0.75401  1.0000
  O   O169      1.0  0.00000  0.62500  0.75401  1.0000
  O   O170      1.0  0.25000  0.50000  0.77517  1.0000
  O   O171      1.0  0.08333  0.50000  0.77517  1.0000
  Sr  Sr18      1.0  0.33333  0.62500  0.79634  1.0000
  Ti  Ti58      1.0  0.16667  0.50000  0.79634  1.0000
  O   O172      1.0  0.16667  0.62500  0.79634  1.0000
  O   O173      1.0  0.08333  0.50000  0.81751  1.0000
  O   O174      1.0  0.25000  0.50000  0.81751  1.0000
  Sr  Sr19      1.0  0.16667  0.62500  0.92334  1.0000
  Ti  Ti59      1.0  0.00000  0.50000  0.83867  1.0000
  O   O175      1.0  0.00000  0.62500  0.83867  1.0000
  O   O176      1.0  0.25000  0.50000  0.85984  1.0000
  O   O177      1.0  0.08333  0.50000  0.85984  1.0000
  Sr  Sr20      1.0  0.33333  0.62500  0.88101  1.0000
  Ti  Ti60      1.0  0.16667  0.50000  0.88101  1.0000
  O   O178      1.0  0.16667  0.62500  0.88101  1.0000
  O   O179      1.0  0.08333  0.50000  0.90218  1.0000
  O   O180      1.0  0.25000  0.50000  0.90218  1.0000
  Sr  Sr21      1.0  0.16667  0.87500  0.16133  1.0000
  Ti  Ti61      1.0  0.00000  0.75000  0.07666  1.0000
  O   O181      1.0  0.00000  0.87500  0.07666  1.0000
  O   O182      1.0  0.25000  0.75000  0.09782  1.0000
  O   O183      1.0  0.08333  0.75000  0.09782  1.0000
  Sr  Sr22      1.0  0.33333  0.87500  0.11899  1.0000
  Ti  Ti62      1.0  0.16667  0.75000  0.11899  1.0000
  O   O184      1.0  0.16667  0.87500  0.11899  1.0000
  O   O185      1.0  0.08333  0.75000  0.14016  1.0000
  O   O186      1.0  0.25000  0.75000  0.14016  1.0000
  Sr  Sr23      1.0  0.16667  0.87500  0.24599  1.0000
  Ti  Ti63      1.0  0.00000  0.75000  0.16133  1.0000
  O   O187      1.0  0.00000  0.87500  0.16133  1.0000
  O   O188      1.0  0.25000  0.75000  0.18249  1.0000
  O   O189      1.0  0.08333  0.75000  0.18249  1.0000
  Sr  Sr24      1.0  0.33333  0.87500  0.20366  1.0000
  Ti  Ti64      1.0  0.16667  0.75000  0.20366  1.0000
  O   O190      1.0  0.16667  0.87500  0.20366  1.0000
  O   O191      1.0  0.08333  0.75000  0.22483  1.0000
  O   O192      1.0  0.25000  0.75000  0.22483  1.0000
  Sr  Sr25      1.0  0.16667  0.87500  0.33066  1.0000
  Ti  Ti65      1.0  0.00000  0.75000  0.24599  1.0000
  O   O193      1.0  0.00000  0.87500  0.24599  1.0000
  O   O194      1.0  0.25000  0.75000  0.26716  1.0000
  O   O195      1.0  0.08333  0.75000  0.26716  1.0000
  Sr  Sr26      1.0  0.33333  0.87500  0.28833  1.0000
  Ti  Ti66      1.0  0.16667  0.75000  0.28833  1.0000
  O   O196      1.0  0.16667  0.87500  0.28833  1.0000
  O   O197      1.0  0.08333  0.75000  0.30950  1.0000
  O   O198      1.0  0.25000  0.75000  0.30950  1.0000
  Sr  Sr27      1.0  0.16667  0.87500  0.41533  1.0000
  Ti  Ti67      1.0  0.00000  0.75000  0.33066  1.0000
  O   O199      1.0  0.00000  0.87500  0.33066  1.0000
  O   O200      1.0  0.25000  0.75000  0.35183  1.0000
  O   O201      1.0  0.08333  0.75000  0.35183  1.0000
  Sr  Sr28      1.0  0.33333  0.87500  0.37300  1.0000
  Ti  Ti68      1.0  0.16667  0.75000  0.37300  1.0000
  O   O202      1.0  0.16667  0.87500  0.37300  1.0000
  O   O203      1.0  0.08333  0.75000  0.39416  1.0000
  O   O204      1.0  0.25000  0.75000  0.39416  1.0000
  Sr  Sr29      1.0  0.16667  0.87500  0.50000  1.0000
  Ti  Ti69      1.0  0.00000  0.75000  0.41533  1.0000
  O   O205      1.0  0.00000  0.87500  0.41533  1.0000
  O   O206      1.0  0.25000  0.75000  0.43650  1.0000
  O   O207      1.0  0.08333  0.75000  0.43650  1.0000
  Sr  Sr30      1.0  0.33333  0.87500  0.45767  1.0000
  Ti  Ti70      1.0  0.16667  0.75000  0.45767  1.0000
  O   O208      1.0  0.16667  0.87500  0.45767  1.0000
  O   O209      1.0  0.08333  0.75000  0.47883  1.0000
  O   O210      1.0  0.25000  0.75000  0.47883  1.0000
  Sr  Sr31      1.0  0.16667  0.87500  0.58467  1.0000
  Ti  Ti71      1.0  0.00000  0.75000  0.50000  1.0000
  O   O211      1.0  0.00000  0.87500  0.50000  1.0000
  O   O212      1.0  0.25000  0.75000  0.52117  1.0000
  O   O213      1.0  0.08333  0.75000  0.52117  1.0000
  Sr  Sr32      1.0  0.33333  0.87500  0.54233  1.0000
  Ti  Ti72      1.0  0.16667  0.75000  0.54233  1.0000
  O   O214      1.0  0.16667  0.87500  0.54233  1.0000
  O   O215      1.0  0.08333  0.75000  0.56350  1.0000
  O   O216      1.0  0.25000  0.75000  0.56350  1.0000
  Sr  Sr33      1.0  0.16667  0.87500  0.66934  1.0000
  Ti  Ti73      1.0  0.00000  0.75000  0.58467  1.0000
  O   O217      1.0  0.00000  0.87500  0.58467  1.0000
  O   O218      1.0  0.25000  0.75000  0.60584  1.0000
  O   O219      1.0  0.08333  0.75000  0.60584  1.0000
  Sr  Sr34      1.0  0.33333  0.87500  0.62700  1.0000
  Ti  Ti74      1.0  0.16667  0.75000  0.62700  1.0000
  O   O220      1.0  0.16667  0.87500  0.62700  1.0000
  O   O221      1.0  0.08333  0.75000  0.64817  1.0000
  O   O222      1.0  0.25000  0.75000  0.64817  1.0000
  Sr  Sr35      1.0  0.16667  0.87500  0.75401  1.0000
  Ti  Ti75      1.0  0.00000  0.75000  0.66934  1.0000
  O   O223      1.0  0.00000  0.87500  0.66934  1.0000
  O   O224      1.0  0.25000  0.75000  0.69050  1.0000
  O   O225      1.0  0.08333  0.75000  0.69050  1.0000
  Sr  Sr36      1.0  0.33333  0.87500  0.71167  1.0000
  Ti  Ti76      1.0  0.16667  0.75000  0.71167  1.0000
  O   O226      1.0  0.16667  0.87500  0.71167  1.0000
  O   O227      1.0  0.08333  0.75000  0.73284  1.0000
  O   O228      1.0  0.25000  0.75000  0.73284  1.0000
  Sr  Sr37      1.0  0.16667  0.87500  0.83867  1.0000
  Ti  Ti77      1.0  0.00000  0.75000  0.75401  1.0000
  O   O229      1.0  0.00000  0.87500  0.75401  1.0000
  O   O230      1.0  0.25000  0.75000  0.77517  1.0000
  O   O231      1.0  0.08333  0.75000  0.77517  1.0000
  Sr  Sr38      1.0  0.33333  0.87500  0.79634  1.0000
  Ti  Ti78      1.0  0.16667  0.75000  0.79634  1.0000
  O   O232      1.0  0.16667  0.87500  0.79634  1.0000
  O   O233      1.0  0.08333  0.75000  0.81751  1.0000
  O   O234      1.0  0.25000  0.75000  0.81751  1.0000
  Sr  Sr39      1.0  0.16667  0.87500  0.92334  1.0000
  Ti  Ti79      1.0  0.00000  0.75000  0.83867  1.0000
  O   O235      1.0  0.00000  0.87500  0.83867  1.0000
  O   O236      1.0  0.25000  0.75000  0.85984  1.0000
  O   O237      1.0  0.08333  0.75000  0.85984  1.0000
  Sr  Sr40      1.0  0.33333  0.87500  0.88101  1.0000
  Ti  Ti80      1.0  0.16667  0.75000  0.88101  1.0000
  O   O238      1.0  0.16667  0.87500  0.88101  1.0000
  O   O239      1.0  0.08333  0.75000  0.90218  1.0000
  O   O240      1.0  0.25000  0.75000  0.90218  1.0000
  La  La41      1.0  0.50000  0.12500  0.16133  1.0000
  Ti  Ti81      1.0  0.33333  0.00000  0.07666  1.0000
  O   O241      1.0  0.33333  0.12500  0.07666  1.0000
  O   O242      1.0  0.58333  0.00000  0.09782  1.0000
  O   O243      1.0  0.41667  0.00000  0.09782  1.0000
  La  La42      1.0  0.66667  0.12500  0.11899  1.0000
  Ti  Ti82      1.0  0.50000  0.00000  0.11899  1.0000
  O   O244      1.0  0.50000  0.12500  0.11899  1.0000
  O   O245      1.0  0.41667  0.00000  0.14016  1.0000
  O   O246      1.0  0.58333  0.00000  0.14016  1.0000
  La  La43      1.0  0.50000  0.12500  0.24599  1.0000
  Ti  Ti83      1.0  0.33333  0.00000  0.16133  1.0000
  O   O247      1.0  0.33333  0.12500  0.16133  1.0000
  O   O248      1.0  0.58333  0.00000  0.18249  1.0000
  O   O249      1.0  0.41667  0.00000  0.18249  1.0000
  La  La44      1.0  0.66667  0.12500  0.20366  1.0000
  Ti  Ti84      1.0  0.50000  0.00000  0.20366  1.0000
  O   O250      1.0  0.50000  0.12500  0.20366  1.0000
  O   O251      1.0  0.41667  0.00000  0.22483  1.0000
  O   O252      1.0  0.58333  0.00000  0.22483  1.0000
  La  La45      1.0  0.50000  0.12500  0.33066  1.0000
  Ti  Ti85      1.0  0.33333  0.00000  0.24599  1.0000
  O   O253      1.0  0.33333  0.12500  0.24599  1.0000
  O   O254      1.0  0.58333  0.00000  0.26716  1.0000
  O   O255      1.0  0.41667  0.00000  0.26716  1.0000
  La  La46      1.0  0.66667  0.12500  0.28833  1.0000
  Ti  Ti86      1.0  0.50000  0.00000  0.28833  1.0000
  O   O256      1.0  0.50000  0.12500  0.28833  1.0000
  O   O257      1.0  0.41667  0.00000  0.30950  1.0000
  O   O258      1.0  0.58333  0.00000  0.30950  1.0000
  La  La47      1.0  0.50000  0.12500  0.41533  1.0000
  Ti  Ti87      1.0  0.33333  0.00000  0.33066  1.0000
  O   O259      1.0  0.33333  0.12500  0.33066  1.0000
  O   O260      1.0  0.58333  0.00000  0.35183  1.0000
  O   O261      1.0  0.41667  0.00000  0.35183  1.0000
  La  La48      1.0  0.66667  0.12500  0.37300  1.0000
  Ti  Ti88      1.0  0.50000  0.00000  0.37300  1.0000
  O   O262      1.0  0.50000  0.12500  0.37300  1.0000
  O   O263      1.0  0.41667  0.00000  0.39416  1.0000
  O   O264      1.0  0.58333  0.00000  0.39416  1.0000
  La  La49      1.0  0.50000  0.12500  0.50000  1.0000
  Ti  Ti89      1.0  0.33333  0.00000  0.41533  1.0000
  O   O265      1.0  0.33333  0.12500  0.41533  1.0000
  O   O266      1.0  0.58333  0.00000  0.43650  1.0000
  O   O267      1.0  0.41667  0.00000  0.43650  1.0000
  La  La50      1.0  0.66667  0.12500  0.45767  1.0000
  Ti  Ti90      1.0  0.50000  0.00000  0.45767  1.0000
  O   O268      1.0  0.50000  0.12500  0.45767  1.0000
  O   O269      1.0  0.41667  0.00000  0.47883  1.0000
  O   O270      1.0  0.58333  0.00000  0.47883  1.0000
  La  La51      1.0  0.50000  0.12500  0.58467  1.0000
  Ti  Ti91      1.0  0.33333  0.00000  0.50000  1.0000
  O   O271      1.0  0.33333  0.12500  0.50000  1.0000
  O   O272      1.0  0.58333  0.00000  0.52117  1.0000
  O   O273      1.0  0.41667  0.00000  0.52117  1.0000
  La  La52      1.0  0.66667  0.12500  0.54233  1.0000
  Ti  Ti92      1.0  0.50000  0.00000  0.54233  1.0000
  O   O274      1.0  0.50000  0.12500  0.54233  1.0000
  O   O275      1.0  0.41667  0.00000  0.56350  1.0000
  O   O276      1.0  0.58333  0.00000  0.56350  1.0000
  La  La53      1.0  0.50000  0.12500  0.66934  1.0000
  Ti  Ti93      1.0  0.33333  0.00000  0.58467  1.0000
  O   O277      1.0  0.33333  0.12500  0.58467  1.0000
  O   O278      1.0  0.58333  0.00000  0.60584  1.0000
  O   O279      1.0  0.41667  0.00000  0.60584  1.0000
  La  La54      1.0  0.66667  0.12500  0.62700  1.0000
  Ti  Ti94      1.0  0.50000  0.00000  0.62700  1.0000
  O   O280      1.0  0.50000  0.12500  0.62700  1.0000
  O   O281      1.0  0.41667  0.00000  0.64817  1.0000
  O   O282      1.0  0.58333  0.00000  0.64817  1.0000
  La  La55      1.0  0.50000  0.12500  0.75401  1.0000
  Ti  Ti95      1.0  0.33333  0.00000  0.66934  1.0000
  O   O283      1.0  0.33333  0.12500  0.66934  1.0000
  O   O284      1.0  0.58333  0.00000  0.69050  1.0000
  O   O285      1.0  0.41667  0.00000  0.69050  1.0000
  La  La56      1.0  0.66667  0.12500  0.71167  1.0000
  Ti  Ti96      1.0  0.50000  0.00000  0.71167  1.0000
  O   O286      1.0  0.50000  0.12500  0.71167  1.0000
  O   O287      1.0  0.41667  0.00000  0.73284  1.0000
  O   O288      1.0  0.58333  0.00000  0.73284  1.0000
  La  La57      1.0  0.50000  0.12500  0.83867  1.0000
  Ti  Ti97      1.0  0.33333  0.00000  0.75401  1.0000
  O   O289      1.0  0.33333  0.12500  0.75401  1.0000
  O   O290      1.0  0.58333  0.00000  0.77517  1.0000
  O   O291      1.0  0.41667  0.00000  0.77517  1.0000
  La  La58      1.0  0.66667  0.12500  0.79634  1.0000
  Ti  Ti98      1.0  0.50000  0.00000  0.79634  1.0000
  O   O292      1.0  0.50000  0.12500  0.79634  1.0000
  O   O293      1.0  0.41667  0.00000  0.81751  1.0000
  O   O294      1.0  0.58333  0.00000  0.81751  1.0000
  La  La59      1.0  0.50000  0.12500  0.92334  1.0000
  Ti  Ti99      1.0  0.33333  0.00000  0.83867  1.0000
  O   O295      1.0  0.33333  0.12500  0.83867  1.0000
  O   O296      1.0  0.58333  0.00000  0.85984  1.0000
  O   O297      1.0  0.41667  0.00000  0.85984  1.0000
  La  La60      1.0  0.66667  0.12500  0.88101  1.0000
  Ti  Ti100     1.0  0.50000  0.00000  0.88101  1.0000
  O   O298      1.0  0.50000  0.12500  0.88101  1.0000
  O   O299      1.0  0.41667  0.00000  0.90218  1.0000
  O   O300      1.0  0.58333  0.00000  0.90218  1.0000
  La  La61      1.0  0.50000  0.37500  0.16133  1.0000
  Ti  Ti101     1.0  0.33333  0.25000  0.07666  1.0000
  O   O301      1.0  0.33333  0.37500  0.07666  1.0000
  O   O302      1.0  0.58333  0.25000  0.09782  1.0000
  O   O303      1.0  0.41667  0.25000  0.09782  1.0000
  La  La62      1.0  0.66667  0.37500  0.11899  1.0000
  Ti  Ti102     1.0  0.50000  0.25000  0.11899  1.0000
  O   O304      1.0  0.50000  0.37500  0.11899  1.0000
  O   O305      1.0  0.41667  0.25000  0.14016  1.0000
  O   O306      1.0  0.58333  0.25000  0.14016  1.0000
  La  La63      1.0  0.50000  0.37500  0.24599  1.0000
  Ti  Ti103     1.0  0.33333  0.25000  0.16133  1.0000
  O   O307      1.0  0.33333  0.37500  0.16133  1.0000
  O   O308      1.0  0.58333  0.25000  0.18249  1.0000
  O   O309      1.0  0.41667  0.25000  0.18249  1.0000
  La  La64      1.0  0.66667  0.37500  0.20366  1.0000
  Ti  Ti104     1.0  0.50000  0.25000  0.20366  1.0000
  O   O310      1.0  0.50000  0.37500  0.20366  1.0000
  O   O311      1.0  0.41667  0.25000  0.22483  1.0000
  O   O312      1.0  0.58333  0.25000  0.22483  1.0000
  La  La65      1.0  0.50000  0.37500  0.33066  1.0000
  Ti  Ti105     1.0  0.33333  0.25000  0.24599  1.0000
  O   O313      1.0  0.33333  0.37500  0.24599  1.0000
  O   O314      1.0  0.58333  0.25000  0.26716  1.0000
  O   O315      1.0  0.41667  0.25000  0.26716  1.0000
  La  La66      1.0  0.66667  0.37500  0.28833  1.0000
  Ti  Ti106     1.0  0.50000  0.25000  0.28833  1.0000
  O   O316      1.0  0.50000  0.37500  0.28833  1.0000
  O   O317      1.0  0.41667  0.25000  0.30950  1.0000
  O   O318      1.0  0.58333  0.25000  0.30950  1.0000
  La  La67      1.0  0.50000  0.37500  0.41533  1.0000
  Ti  Ti107     1.0  0.33333  0.25000  0.33066  1.0000
  O   O319      1.0  0.33333  0.37500  0.33066  1.0000
  O   O320      1.0  0.58333  0.25000  0.35183  1.0000
  O   O321      1.0  0.41667  0.25000  0.35183  1.0000
  La  La68      1.0  0.66667  0.37500  0.37300  1.0000
  Ti  Ti108     1.0  0.50000  0.25000  0.37300  1.0000
  O   O322      1.0  0.50000  0.37500  0.37300  1.0000
  O   O323      1.0  0.41667  0.25000  0.39416  1.0000
  O   O324      1.0  0.58333  0.25000  0.39416  1.0000
  La  La69      1.0  0.50000  0.37500  0.50000  1.0000
  Ti  Ti109     1.0  0.33333  0.25000  0.41533  1.0000
  O   O325      1.0  0.33333  0.37500  0.41533  1.0000
  O   O326      1.0  0.58333  0.25000  0.43650  1.0000
  O   O327      1.0  0.41667  0.25000  0.43650  1.0000
  La  La70      1.0  0.66667  0.37500  0.45767  1.0000
  Ti  Ti110     1.0  0.50000  0.25000  0.45767  1.0000
  O   O328      1.0  0.50000  0.37500  0.45767  1.0000
  O   O329      1.0  0.41667  0.25000  0.47883  1.0000
  O   O330      1.0  0.58333  0.25000  0.47883  1.0000
  La  La71      1.0  0.50000  0.37500  0.58467  1.0000
  Ti  Ti111     1.0  0.33333  0.25000  0.50000  1.0000
  O   O331      1.0  0.33333  0.37500  0.50000  1.0000
  O   O332      1.0  0.58333  0.25000  0.52117  1.0000
  O   O333      1.0  0.41667  0.25000  0.52117  1.0000
  La  La72      1.0  0.66667  0.37500  0.54233  1.0000
  Ti  Ti112     1.0  0.50000  0.25000  0.54233  1.0000
  O   O334      1.0  0.50000  0.37500  0.54233  1.0000
  O   O335      1.0  0.41667  0.25000  0.56350  1.0000
  O   O336      1.0  0.58333  0.25000  0.56350  1.0000
  La  La73      1.0  0.50000  0.37500  0.66934  1.0000
  Ti  Ti113     1.0  0.33333  0.25000  0.58467  1.0000
  O   O337      1.0  0.33333  0.37500  0.58467  1.0000
  O   O338      1.0  0.58333  0.25000  0.60584  1.0000
  O   O339      1.0  0.41667  0.25000  0.60584  1.0000
  La  La74      1.0  0.66667  0.37500  0.62700  1.0000
  Ti  Ti114     1.0  0.50000  0.25000  0.62700  1.0000
  O   O340      1.0  0.50000  0.37500  0.62700  1.0000
  O   O341      1.0  0.41667  0.25000  0.64817  1.0000
  O   O342      1.0  0.58333  0.25000  0.64817  1.0000
  La  La75      1.0  0.50000  0.37500  0.75401  1.0000
  Ti  Ti115     1.0  0.33333  0.25000  0.66934  1.0000
  O   O343      1.0  0.33333  0.37500  0.66934  1.0000
  O   O344      1.0  0.58333  0.25000  0.69050  1.0000
  O   O345      1.0  0.41667  0.25000  0.69050  1.0000
  La  La76      1.0  0.66667  0.37500  0.71167  1.0000
  Ti  Ti116     1.0  0.50000  0.25000  0.71167  1.0000
  O   O346      1.0  0.50000  0.37500  0.71167  1.0000
  O   O347      1.0  0.41667  0.25000  0.73284  1.0000
  O   O348      1.0  0.58333  0.25000  0.73284  1.0000
  La  La77      1.0  0.50000  0.37500  0.83867  1.0000
  Ti  Ti117     1.0  0.33333  0.25000  0.75401  1.0000
  O   O349      1.0  0.33333  0.37500  0.75401  1.0000
  O   O350      1.0  0.58333  0.25000  0.77517  1.0000
  O   O351      1.0  0.41667  0.25000  0.77517  1.0000
  La  La78      1.0  0.66667  0.37500  0.79634  1.0000
  Ti  Ti118     1.0  0.50000  0.25000  0.79634  1.0000
  O   O352      1.0  0.50000  0.37500  0.79634  1.0000
  O   O353      1.0  0.41667  0.25000  0.81751  1.0000
  O   O354      1.0  0.58333  0.25000  0.81751  1.0000
  La  La79      1.0  0.50000  0.37500  0.92334  1.0000
  Ti  Ti119     1.0  0.33333  0.25000  0.83867  1.0000
  O   O355      1.0  0.33333  0.37500  0.83867  1.0000
  O   O356      1.0  0.58333  0.25000  0.85984  1.0000
  O   O357      1.0  0.41667  0.25000  0.85984  1.0000
  La  La80      1.0  0.66667  0.37500  0.88101  1.0000
  Ti  Ti120     1.0  0.50000  0.25000  0.88101  1.0000
  O   O358      1.0  0.50000  0.37500  0.88101  1.0000
  O   O359      1.0  0.41667  0.25000  0.90218  1.0000
  O   O360      1.0  0.58333  0.25000  0.90218  1.0000
  Sr  Sr41      1.0  0.50000  0.62500  0.16133  1.0000
  Ti  Ti121     1.0  0.33333  0.50000  0.07666  1.0000
  O   O361      1.0  0.33333  0.62500  0.07666  1.0000
  O   O362      1.0  0.58333  0.50000  0.09782  1.0000
  O   O363      1.0  0.41667  0.50000  0.09782  1.0000
  Sr  Sr42      1.0  0.66667  0.62500  0.11899  1.0000
  Ti  Ti122     1.0  0.50000  0.50000  0.11899  1.0000
  O   O364      1.0  0.50000  0.62500  0.11899  1.0000
  O   O365      1.0  0.41667  0.50000  0.14016  1.0000
  O   O366      1.0  0.58333  0.50000  0.14016  1.0000
  Sr  Sr43      1.0  0.50000  0.62500  0.24599  1.0000
  Ti  Ti123     1.0  0.33333  0.50000  0.16133  1.0000
  O   O367      1.0  0.33333  0.62500  0.16133  1.0000
  O   O368      1.0  0.58333  0.50000  0.18249  1.0000
  O   O369      1.0  0.41667  0.50000  0.18249  1.0000
  Sr  Sr44      1.0  0.66667  0.62500  0.20366  1.0000
  Ti  Ti124     1.0  0.50000  0.50000  0.20366  1.0000
  O   O370      1.0  0.50000  0.62500  0.20366  1.0000
  O   O371      1.0  0.41667  0.50000  0.22483  1.0000
  O   O372      1.0  0.58333  0.50000  0.22483  1.0000
  Sr  Sr45      1.0  0.50000  0.62500  0.33066  1.0000
  Ti  Ti125     1.0  0.33333  0.50000  0.24599  1.0000
  O   O373      1.0  0.33333  0.62500  0.24599  1.0000
  O   O374      1.0  0.58333  0.50000  0.26716  1.0000
  O   O375      1.0  0.41667  0.50000  0.26716  1.0000
  Sr  Sr46      1.0  0.66667  0.62500  0.28833  1.0000
  Ti  Ti126     1.0  0.50000  0.50000  0.28833  1.0000
  O   O376      1.0  0.50000  0.62500  0.28833  1.0000
  O   O377      1.0  0.41667  0.50000  0.30950  1.0000
  O   O378      1.0  0.58333  0.50000  0.30950  1.0000
  Sr  Sr47      1.0  0.50000  0.62500  0.41533  1.0000
  Ti  Ti127     1.0  0.33333  0.50000  0.33066  1.0000
  O   O379      1.0  0.33333  0.62500  0.33066  1.0000
  O   O380      1.0  0.58333  0.50000  0.35183  1.0000
  O   O381      1.0  0.41667  0.50000  0.35183  1.0000
  Sr  Sr48      1.0  0.66667  0.62500  0.37300  1.0000
  Ti  Ti128     1.0  0.50000  0.50000  0.37300  1.0000
  O   O382      1.0  0.50000  0.62500  0.37300  1.0000
  O   O383      1.0  0.41667  0.50000  0.39416  1.0000
  O   O384      1.0  0.58333  0.50000  0.39416  1.0000
  Sr  Sr49      1.0  0.50000  0.62500  0.50000  1.0000
  Ti  Ti129     1.0  0.33333  0.50000  0.41533  1.0000
  O   O385      1.0  0.33333  0.62500  0.41533  1.0000
  O   O386      1.0  0.58333  0.50000  0.43650  1.0000
  O   O387      1.0  0.41667  0.50000  0.43650  1.0000
  Sr  Sr50      1.0  0.66667  0.62500  0.45767  1.0000
  Ti  Ti130     1.0  0.50000  0.50000  0.45767  1.0000
  O   O388      1.0  0.50000  0.62500  0.45767  1.0000
  O   O389      1.0  0.41667  0.50000  0.47883  1.0000
  O   O390      1.0  0.58333  0.50000  0.47883  1.0000
  Sr  Sr51      1.0  0.50000  0.62500  0.58467  1.0000
  Ti  Ti131     1.0  0.33333  0.50000  0.50000  1.0000
  O   O391      1.0  0.33333  0.62500  0.50000  1.0000
  O   O392      1.0  0.58333  0.50000  0.52117  1.0000
  O   O393      1.0  0.41667  0.50000  0.52117  1.0000
  Sr  Sr52      1.0  0.66667  0.62500  0.54233  1.0000
  Ti  Ti132     1.0  0.50000  0.50000  0.54233  1.0000
  O   O394      1.0  0.50000  0.62500  0.54233  1.0000
  O   O395      1.0  0.41667  0.50000  0.56350  1.0000
  O   O396      1.0  0.58333  0.50000  0.56350  1.0000
  Sr  Sr53      1.0  0.50000  0.62500  0.66934  1.0000
  Ti  Ti133     1.0  0.33333  0.50000  0.58467  1.0000
  O   O397      1.0  0.33333  0.62500  0.58467  1.0000
  O   O398      1.0  0.58333  0.50000  0.60584  1.0000
  O   O399      1.0  0.41667  0.50000  0.60584  1.0000
  Sr  Sr54      1.0  0.66667  0.62500  0.62700  1.0000
  Ti  Ti134     1.0  0.50000  0.50000  0.62700  1.0000
  O   O400      1.0  0.50000  0.62500  0.62700  1.0000
  O   O401      1.0  0.41667  0.50000  0.64817  1.0000
  O   O402      1.0  0.58333  0.50000  0.64817  1.0000
  Sr  Sr55      1.0  0.50000  0.62500  0.75401  1.0000
  Ti  Ti135     1.0  0.33333  0.50000  0.66934  1.0000
  O   O403      1.0  0.33333  0.62500  0.66934  1.0000
  O   O404      1.0  0.58333  0.50000  0.69050  1.0000
  O   O405      1.0  0.41667  0.50000  0.69050  1.0000
  Sr  Sr56      1.0  0.66667  0.62500  0.71167  1.0000
  Ti  Ti136     1.0  0.50000  0.50000  0.71167  1.0000
  O   O406      1.0  0.50000  0.62500  0.71167  1.0000
  O   O407      1.0  0.41667  0.50000  0.73284  1.0000
  O   O408      1.0  0.58333  0.50000  0.73284  1.0000
  Sr  Sr57      1.0  0.50000  0.62500  0.83867  1.0000
  Ti  Ti137     1.0  0.33333  0.50000  0.75401  1.0000
  O   O409      1.0  0.33333  0.62500  0.75401  1.0000
  O   O410      1.0  0.58333  0.50000  0.77517  1.0000
  O   O411      1.0  0.41667  0.50000  0.77517  1.0000
  Sr  Sr58      1.0  0.66667  0.62500  0.79634  1.0000
  Ti  Ti138     1.0  0.50000  0.50000  0.79634  1.0000
  O   O412      1.0  0.50000  0.62500  0.79634  1.0000
  O   O413      1.0  0.41667  0.50000  0.81751  1.0000
  O   O414      1.0  0.58333  0.50000  0.81751  1.0000
  Sr  Sr59      1.0  0.50000  0.62500  0.92334  1.0000
  Ti  Ti139     1.0  0.33333  0.50000  0.83867  1.0000
  O   O415      1.0  0.33333  0.62500  0.83867  1.0000
  O   O416      1.0  0.58333  0.50000  0.85984  1.0000
  O   O417      1.0  0.41667  0.50000  0.85984  1.0000
  Sr  Sr60      1.0  0.66667  0.62500  0.88101  1.0000
  Ti  Ti140     1.0  0.50000  0.50000  0.88101  1.0000
  O   O418      1.0  0.50000  0.62500  0.88101  1.0000
  O   O419      1.0  0.41667  0.50000  0.90218  1.0000
  O   O420      1.0  0.58333  0.50000  0.90218  1.0000
  Sr  Sr61      1.0  0.50000  0.87500  0.16133  1.0000
  Ti  Ti141     1.0  0.33333  0.75000  0.07666  1.0000
  O   O421      1.0  0.33333  0.87500  0.07666  1.0000
  O   O422      1.0  0.58333  0.75000  0.09782  1.0000
  O   O423      1.0  0.41667  0.75000  0.09782  1.0000
  Sr  Sr62      1.0  0.66667  0.87500  0.11899  1.0000
  Ti  Ti142     1.0  0.50000  0.75000  0.11899  1.0000
  O   O424      1.0  0.50000  0.87500  0.11899  1.0000
  O   O425      1.0  0.41667  0.75000  0.14016  1.0000
  O   O426      1.0  0.58333  0.75000  0.14016  1.0000
  Sr  Sr63      1.0  0.50000  0.87500  0.24599  1.0000
  Ti  Ti143     1.0  0.33333  0.75000  0.16133  1.0000
  O   O427      1.0  0.33333  0.87500  0.16133  1.0000
  O   O428      1.0  0.58333  0.75000  0.18249  1.0000
  O   O429      1.0  0.41667  0.75000  0.18249  1.0000
  Sr  Sr64      1.0  0.66667  0.87500  0.20366  1.0000
  Ti  Ti144     1.0  0.50000  0.75000  0.20366  1.0000
  O   O430      1.0  0.50000  0.87500  0.20366  1.0000
  O   O431      1.0  0.41667  0.75000  0.22483  1.0000
  O   O432      1.0  0.58333  0.75000  0.22483  1.0000
  Sr  Sr65      1.0  0.50000  0.87500  0.33066  1.0000
  Ti  Ti145     1.0  0.33333  0.75000  0.24599  1.0000
  O   O433      1.0  0.33333  0.87500  0.24599  1.0000
  O   O434      1.0  0.58333  0.75000  0.26716  1.0000
  O   O435      1.0  0.41667  0.75000  0.26716  1.0000
  Sr  Sr66      1.0  0.66667  0.87500  0.28833  1.0000
  Ti  Ti146     1.0  0.50000  0.75000  0.28833  1.0000
  O   O436      1.0  0.50000  0.87500  0.28833  1.0000
  O   O437      1.0  0.41667  0.75000  0.30950  1.0000
  O   O438      1.0  0.58333  0.75000  0.30950  1.0000
  Sr  Sr67      1.0  0.50000  0.87500  0.41533  1.0000
  Ti  Ti147     1.0  0.33333  0.75000  0.33066  1.0000
  O   O439      1.0  0.33333  0.87500  0.33066  1.0000
  O   O440      1.0  0.58333  0.75000  0.35183  1.0000
  O   O441      1.0  0.41667  0.75000  0.35183  1.0000
  Sr  Sr68      1.0  0.66667  0.87500  0.37300  1.0000
  Ti  Ti148     1.0  0.50000  0.75000  0.37300  1.0000
  O   O442      1.0  0.50000  0.87500  0.37300  1.0000
  O   O443      1.0  0.41667  0.75000  0.39416  1.0000
  O   O444      1.0  0.58333  0.75000  0.39416  1.0000
  Sr  Sr69      1.0  0.50000  0.87500  0.50000  1.0000
  Ti  Ti149     1.0  0.33333  0.75000  0.41533  1.0000
  O   O445      1.0  0.33333  0.87500  0.41533  1.0000
  O   O446      1.0  0.58333  0.75000  0.43650  1.0000
  O   O447      1.0  0.41667  0.75000  0.43650  1.0000
  Sr  Sr70      1.0  0.66667  0.87500  0.45767  1.0000
  Ti  Ti150     1.0  0.50000  0.75000  0.45767  1.0000
  O   O448      1.0  0.50000  0.87500  0.45767  1.0000
  O   O449      1.0  0.41667  0.75000  0.47883  1.0000
  O   O450      1.0  0.58333  0.75000  0.47883  1.0000
  Sr  Sr71      1.0  0.50000  0.87500  0.58467  1.0000
  Ti  Ti151     1.0  0.33333  0.75000  0.50000  1.0000
  O   O451      1.0  0.33333  0.87500  0.50000  1.0000
  O   O452      1.0  0.58333  0.75000  0.52117  1.0000
  O   O453      1.0  0.41667  0.75000  0.52117  1.0000
  Sr  Sr72      1.0  0.66667  0.87500  0.54233  1.0000
  Ti  Ti152     1.0  0.50000  0.75000  0.54233  1.0000
  O   O454      1.0  0.50000  0.87500  0.54233  1.0000
  O   O455      1.0  0.41667  0.75000  0.56350  1.0000
  O   O456      1.0  0.58333  0.75000  0.56350  1.0000
  Sr  Sr73      1.0  0.50000  0.87500  0.66934  1.0000
  Ti  Ti153     1.0  0.33333  0.75000  0.58467  1.0000
  O   O457      1.0  0.33333  0.87500  0.58467  1.0000
  O   O458      1.0  0.58333  0.75000  0.60584  1.0000
  O   O459      1.0  0.41667  0.75000  0.60584  1.0000
  Sr  Sr74      1.0  0.66667  0.87500  0.62700  1.0000
  Ti  Ti154     1.0  0.50000  0.75000  0.62700  1.0000
  O   O460      1.0  0.50000  0.87500  0.62700  1.0000
  O   O461      1.0  0.41667  0.75000  0.64817  1.0000
  O   O462      1.0  0.58333  0.75000  0.64817  1.0000
  Sr  Sr75      1.0  0.50000  0.87500  0.75401  1.0000
  Ti  Ti155     1.0  0.33333  0.75000  0.66934  1.0000
  O   O463      1.0  0.33333  0.87500  0.66934  1.0000
  O   O464      1.0  0.58333  0.75000  0.69050  1.0000
  O   O465      1.0  0.41667  0.75000  0.69050  1.0000
  Sr  Sr76      1.0  0.66667  0.87500  0.71167  1.0000
  Ti  Ti156     1.0  0.50000  0.75000  0.71167  1.0000
  O   O466      1.0  0.50000  0.87500  0.71167  1.0000
  O   O467      1.0  0.41667  0.75000  0.73284  1.0000
  O   O468      1.0  0.58333  0.75000  0.73284  1.0000
  Sr  Sr77      1.0  0.50000  0.87500  0.83867  1.0000
  Ti  Ti157     1.0  0.33333  0.75000  0.75401  1.0000
  O   O469      1.0  0.33333  0.87500  0.75401  1.0000
  O   O470      1.0  0.58333  0.75000  0.77517  1.0000
  O   O471      1.0  0.41667  0.75000  0.77517  1.0000
  Sr  Sr78      1.0  0.66667  0.87500  0.79634  1.0000
  Ti  Ti158     1.0  0.50000  0.75000  0.79634  1.0000
  O   O472      1.0  0.50000  0.87500  0.79634  1.0000
  O   O473      1.0  0.41667  0.75000  0.81751  1.0000
  O   O474      1.0  0.58333  0.75000  0.81751  1.0000
  Sr  Sr79      1.0  0.50000  0.87500  0.92334  1.0000
  Ti  Ti159     1.0  0.33333  0.75000  0.83867  1.0000
  O   O475      1.0  0.33333  0.87500  0.83867  1.0000
  O   O476      1.0  0.58333  0.75000  0.85984  1.0000
  O   O477      1.0  0.41667  0.75000  0.85984  1.0000
  Sr  Sr80      1.0  0.66667  0.87500  0.88101  1.0000
  Ti  Ti160     1.0  0.50000  0.75000  0.88101  1.0000
  O   O478      1.0  0.50000  0.87500  0.88101  1.0000
  O   O479      1.0  0.41667  0.75000  0.90218  1.0000
  O   O480      1.0  0.58333  0.75000  0.90218  1.0000
  La  La81      1.0  0.83333  0.12500  0.16133  1.0000
  Ti  Ti161     1.0  0.66667  0.00000  0.07666  1.0000
  O   O481      1.0  0.66667  0.12500  0.07666  1.0000
  O   O482      1.0  0.91667  0.00000  0.09782  1.0000
  O   O483      1.0  0.75000  0.00000  0.09782  1.0000
  La  La82      1.0  0.00000  0.12500  0.11899  1.0000
  Ti  Ti162     1.0  0.83333  0.00000  0.11899  1.0000
  O   O484      1.0  0.83333  0.12500  0.11899  1.0000
  O   O485      1.0  0.75000  0.00000  0.14016  1.0000
  O   O486      1.0  0.91667  0.00000  0.14016  1.0000
  La  La83      1.0  0.83333  0.12500  0.24599  1.0000
  Ti  Ti163     1.0  0.66667  0.00000  0.16133  1.0000
  O   O487      1.0  0.66667  0.12500  0.16133  1.0000
  O   O488      1.0  0.91667  0.00000  0.18249  1.0000
  O   O489      1.0  0.75000  0.00000  0.18249  1.0000
  La  La84      1.0  0.00000  0.12500  0.20366  1.0000
  Ti  Ti164     1.0  0.83333  0.00000  0.20366  1.0000
  O   O490      1.0  0.83333  0.12500  0.20366  1.0000
  O   O491      1.0  0.75000  0.00000  0.22483  1.0000
  O   O492      1.0  0.91667  0.00000  0.22483  1.0000
  La  La85      1.0  0.83333  0.12500  0.33066  1.0000
  Ti  Ti165     1.0  0.66667  0.00000  0.24599  1.0000
  O   O493      1.0  0.66667  0.12500  0.24599  1.0000
  O   O494      1.0  0.91667  0.00000  0.26716  1.0000
  O   O495      1.0  0.75000  0.00000  0.26716  1.0000
  La  La86      1.0  0.00000  0.12500  0.28833  1.0000
  Ti  Ti166     1.0  0.83333  0.00000  0.28833  1.0000
  O   O496      1.0  0.83333  0.12500  0.28833  1.0000
  O   O497      1.0  0.75000  0.00000  0.30950  1.0000
  O   O498      1.0  0.91667  0.00000  0.30950  1.0000
  La  La87      1.0  0.83333  0.12500  0.41533  1.0000
  Ti  Ti167     1.0  0.66667  0.00000  0.33066  1.0000
  O   O499      1.0  0.66667  0.12500  0.33066  1.0000
  O   O500      1.0  0.91667  0.00000  0.35183  1.0000
  O   O501      1.0  0.75000  0.00000  0.35183  1.0000
  La  La88      1.0  0.00000  0.12500  0.37300  1.0000
  Ti  Ti168     1.0  0.83333  0.00000  0.37300  1.0000
  O   O502      1.0  0.83333  0.12500  0.37300  1.0000
  O   O503      1.0  0.75000  0.00000  0.39416  1.0000
  O   O504      1.0  0.91667  0.00000  0.39416  1.0000
  La  La89      1.0  0.83333  0.12500  0.50000  1.0000
  Ti  Ti169     1.0  0.66667  0.00000  0.41533  1.0000
  O   O505      1.0  0.66667  0.12500  0.41533  1.0000
  O   O506      1.0  0.91667  0.00000  0.43650  1.0000
  O   O507      1.0  0.75000  0.00000  0.43650  1.0000
  La  La90      1.0  0.00000  0.12500  0.45767  1.0000
  Ti  Ti170     1.0  0.83333  0.00000  0.45767  1.0000
  O   O508      1.0  0.83333  0.12500  0.45767  1.0000
  O   O509      1.0  0.75000  0.00000  0.47883  1.0000
  O   O510      1.0  0.91667  0.00000  0.47883  1.0000
  La  La91      1.0  0.83333  0.12500  0.58467  1.0000
  Ti  Ti171     1.0  0.66667  0.00000  0.50000  1.0000
  O   O511      1.0  0.66667  0.12500  0.50000  1.0000
  O   O512      1.0  0.91667  0.00000  0.52117  1.0000
  O   O513      1.0  0.75000  0.00000  0.52117  1.0000
  La  La92      1.0  0.00000  0.12500  0.54233  1.0000
  Ti  Ti172     1.0  0.83333  0.00000  0.54233  1.0000
  O   O514      1.0  0.83333  0.12500  0.54233  1.0000
  O   O515      1.0  0.75000  0.00000  0.56350  1.0000
  O   O516      1.0  0.91667  0.00000  0.56350  1.0000
  La  La93      1.0  0.83333  0.12500  0.66934  1.0000
  Ti  Ti173     1.0  0.66667  0.00000  0.58467  1.0000
  O   O517      1.0  0.66667  0.12500  0.58467  1.0000
  O   O518      1.0  0.91667  0.00000  0.60584  1.0000
  O   O519      1.0  0.75000  0.00000  0.60584  1.0000
  La  La94      1.0  0.00000  0.12500  0.62700  1.0000
  Ti  Ti174     1.0  0.83333  0.00000  0.62700  1.0000
  O   O520      1.0  0.83333  0.12500  0.62700  1.0000
  O   O521      1.0  0.75000  0.00000  0.64817  1.0000
  O   O522      1.0  0.91667  0.00000  0.64817  1.0000
  La  La95      1.0  0.83333  0.12500  0.75401  1.0000
  Ti  Ti175     1.0  0.66667  0.00000  0.66934  1.0000
  O   O523      1.0  0.66667  0.12500  0.66934  1.0000
  O   O524      1.0  0.91667  0.00000  0.69050  1.0000
  O   O525      1.0  0.75000  0.00000  0.69050  1.0000
  La  La96      1.0  0.00000  0.12500  0.71167  1.0000
  Ti  Ti176     1.0  0.83333  0.00000  0.71167  1.0000
  O   O526      1.0  0.83333  0.12500  0.71167  1.0000
  O   O527      1.0  0.75000  0.00000  0.73284  1.0000
  O   O528      1.0  0.91667  0.00000  0.73284  1.0000
  La  La97      1.0  0.83333  0.12500  0.83867  1.0000
  Ti  Ti177     1.0  0.66667  0.00000  0.75401  1.0000
  O   O529      1.0  0.66667  0.12500  0.75401  1.0000
  O   O530      1.0  0.91667  0.00000  0.77517  1.0000
  O   O531      1.0  0.75000  0.00000  0.77517  1.0000
  La  La98      1.0  0.00000  0.12500  0.79634  1.0000
  Ti  Ti178     1.0  0.83333  0.00000  0.79634  1.0000
  O   O532      1.0  0.83333  0.12500  0.79634  1.0000
  O   O533      1.0  0.75000  0.00000  0.81751  1.0000
  O   O534      1.0  0.91667  0.00000  0.81751  1.0000
  La  La99      1.0  0.83333  0.12500  0.92334  1.0000
  Ti  Ti179     1.0  0.66667  0.00000  0.83867  1.0000
  O   O535      1.0  0.66667  0.12500  0.83867  1.0000
  O   O536      1.0  0.91667  0.00000  0.85984  1.0000
  O   O537      1.0  0.75000  0.00000  0.85984  1.0000
  La  La100     1.0  0.00000  0.12500  0.88101  1.0000
  Ti  Ti180     1.0  0.83333  0.00000  0.88101  1.0000
  O   O538      1.0  0.83333  0.12500  0.88101  1.0000
  O   O539      1.0  0.75000  0.00000  0.90218  1.0000
  O   O540      1.0  0.91667  0.00000  0.90218  1.0000
  La  La101     1.0  0.83333  0.37500  0.16133  1.0000
  Ti  Ti181     1.0  0.66667  0.25000  0.07666  1.0000
  O   O541      1.0  0.66667  0.37500  0.07666  1.0000
  O   O542      1.0  0.91667  0.25000  0.09782  1.0000
  O   O543      1.0  0.75000  0.25000  0.09782  1.0000
  La  La102     1.0  0.00000  0.37500  0.11899  1.0000
  Ti  Ti182     1.0  0.83333  0.25000  0.11899  1.0000
  O   O544      1.0  0.83333  0.37500  0.11899  1.0000
  O   O545      1.0  0.75000  0.25000  0.14016  1.0000
  O   O546      1.0  0.91667  0.25000  0.14016  1.0000
  La  La103     1.0  0.83333  0.37500  0.24599  1.0000
  Ti  Ti183     1.0  0.66667  0.25000  0.16133  1.0000
  O   O547      1.0  0.66667  0.37500  0.16133  1.0000
  O   O548      1.0  0.91667  0.25000  0.18249  1.0000
  O   O549      1.0  0.75000  0.25000  0.18249  1.0000
  La  La104     1.0  0.00000  0.37500  0.20366  1.0000
  Ti  Ti184     1.0  0.83333  0.25000  0.20366  1.0000
  O   O550      1.0  0.83333  0.37500  0.20366  1.0000
  O   O551      1.0  0.75000  0.25000  0.22483  1.0000
  O   O552      1.0  0.91667  0.25000  0.22483  1.0000
  La  La105     1.0  0.83333  0.37500  0.33066  1.0000
  Ti  Ti185     1.0  0.66667  0.25000  0.24599  1.0000
  O   O553      1.0  0.66667  0.37500  0.24599  1.0000
  O   O554      1.0  0.91667  0.25000  0.26716  1.0000
  O   O555      1.0  0.75000  0.25000  0.26716  1.0000
  La  La106     1.0  0.00000  0.37500  0.28833  1.0000
  Ti  Ti186     1.0  0.83333  0.25000  0.28833  1.0000
  O   O556      1.0  0.83333  0.37500  0.28833  1.0000
  O   O557      1.0  0.75000  0.25000  0.30950  1.0000
  O   O558      1.0  0.91667  0.25000  0.30950  1.0000
  La  La107     1.0  0.83333  0.37500  0.41533  1.0000
  Ti  Ti187     1.0  0.66667  0.25000  0.33066  1.0000
  O   O559      1.0  0.66667  0.37500  0.33066  1.0000
  O   O560      1.0  0.91667  0.25000  0.35183  1.0000
  O   O561      1.0  0.75000  0.25000  0.35183  1.0000
  La  La108     1.0  0.00000  0.37500  0.37300  1.0000
  Ti  Ti188     1.0  0.83333  0.25000  0.37300  1.0000
  O   O562      1.0  0.83333  0.37500  0.37300  1.0000
  O   O563      1.0  0.75000  0.25000  0.39416  1.0000
  O   O564      1.0  0.91667  0.25000  0.39416  1.0000
  La  La109     1.0  0.83333  0.37500  0.50000  1.0000
  Ti  Ti189     1.0  0.66667  0.25000  0.41533  1.0000
  O   O565      1.0  0.66667  0.37500  0.41533  1.0000
  O   O566      1.0  0.91667  0.25000  0.43650  1.0000
  O   O567      1.0  0.75000  0.25000  0.43650  1.0000
  La  La110     1.0  0.00000  0.37500  0.45767  1.0000
  Ti  Ti190     1.0  0.83333  0.25000  0.45767  1.0000
  O   O568      1.0  0.83333  0.37500  0.45767  1.0000
  O   O569      1.0  0.75000  0.25000  0.47883  1.0000
  O   O570      1.0  0.91667  0.25000  0.47883  1.0000
  La  La111     1.0  0.83333  0.37500  0.58467  1.0000
  Ti  Ti191     1.0  0.66667  0.25000  0.50000  1.0000
  O   O571      1.0  0.66667  0.37500  0.50000  1.0000
  O   O572      1.0  0.91667  0.25000  0.52117  1.0000
  O   O573      1.0  0.75000  0.25000  0.52117  1.0000
  La  La112     1.0  0.00000  0.37500  0.54233  1.0000
  Ti  Ti192     1.0  0.83333  0.25000  0.54233  1.0000
  O   O574      1.0  0.83333  0.37500  0.54233  1.0000
  O   O575      1.0  0.75000  0.25000  0.56350  1.0000
  O   O576      1.0  0.91667  0.25000  0.56350  1.0000
  La  La113     1.0  0.83333  0.37500  0.66934  1.0000
  Ti  Ti193     1.0  0.66667  0.25000  0.58467  1.0000
  O   O577      1.0  0.66667  0.37500  0.58467  1.0000
  O   O578      1.0  0.91667  0.25000  0.60584  1.0000
  O   O579      1.0  0.75000  0.25000  0.60584  1.0000
  La  La114     1.0  0.00000  0.37500  0.62700  1.0000
  Ti  Ti194     1.0  0.83333  0.25000  0.62700  1.0000
  O   O580      1.0  0.83333  0.37500  0.62700  1.0000
  O   O581      1.0  0.75000  0.25000  0.64817  1.0000
  O   O582      1.0  0.91667  0.25000  0.64817  1.0000
  La  La115     1.0  0.83333  0.37500  0.75401  1.0000
  Ti  Ti195     1.0  0.66667  0.25000  0.66934  1.0000
  O   O583      1.0  0.66667  0.37500  0.66934  1.0000
  O   O584      1.0  0.91667  0.25000  0.69050  1.0000
  O   O585      1.0  0.75000  0.25000  0.69050  1.0000
  La  La116     1.0  0.00000  0.37500  0.71167  1.0000
  Ti  Ti196     1.0  0.83333  0.25000  0.71167  1.0000
  O   O586      1.0  0.83333  0.37500  0.71167  1.0000
  O   O587      1.0  0.75000  0.25000  0.73284  1.0000
  O   O588      1.0  0.91667  0.25000  0.73284  1.0000
  La  La117     1.0  0.83333  0.37500  0.83867  1.0000
  Ti  Ti197     1.0  0.66667  0.25000  0.75401  1.0000
  O   O589      1.0  0.66667  0.37500  0.75401  1.0000
  O   O590      1.0  0.91667  0.25000  0.77517  1.0000
  O   O591      1.0  0.75000  0.25000  0.77517  1.0000
  La  La118     1.0  0.00000  0.37500  0.79634  1.0000
  Ti  Ti198     1.0  0.83333  0.25000  0.79634  1.0000
  O   O592      1.0  0.83333  0.37500  0.79634  1.0000
  O   O593      1.0  0.75000  0.25000  0.81751  1.0000
  O   O594      1.0  0.91667  0.25000  0.81751  1.0000
  La  La119     1.0  0.83333  0.37500  0.92334  1.0000
  Ti  Ti199     1.0  0.66667  0.25000  0.83867  1.0000
  O   O595      1.0  0.66667  0.37500  0.83867  1.0000
  O   O596      1.0  0.91667  0.25000  0.85984  1.0000
  O   O597      1.0  0.75000  0.25000  0.85984  1.0000
  La  La120     1.0  0.00000  0.37500  0.88101  1.0000
  Ti  Ti200     1.0  0.83333  0.25000  0.88101  1.0000
  O   O598      1.0  0.83333  0.37500  0.88101  1.0000
  O   O599      1.0  0.75000  0.25000  0.90218  1.0000
  O   O600      1.0  0.91667  0.25000  0.90218  1.0000
  Sr  Sr81      1.0  0.83333  0.62500  0.16133  1.0000
  Ti  Ti201     1.0  0.66667  0.50000  0.07666  1.0000
  O   O601      1.0  0.66667  0.62500  0.07666  1.0000
  O   O602      1.0  0.91667  0.50000  0.09782  1.0000
  O   O603      1.0  0.75000  0.50000  0.09782  1.0000
  Sr  Sr82      1.0  0.00000  0.62500  0.11899  1.0000
  Ti  Ti202     1.0  0.83333  0.50000  0.11899  1.0000
  O   O604      1.0  0.83333  0.62500  0.11899  1.0000
  O   O605      1.0  0.75000  0.50000  0.14016  1.0000
  O   O606      1.0  0.91667  0.50000  0.14016  1.0000
  Sr  Sr83      1.0  0.83333  0.62500  0.24599  1.0000
  Ti  Ti203     1.0  0.66667  0.50000  0.16133  1.0000
  O   O607      1.0  0.66667  0.62500  0.16133  1.0000
  O   O608      1.0  0.91667  0.50000  0.18249  1.0000
  O   O609      1.0  0.75000  0.50000  0.18249  1.0000
  Sr  Sr84      1.0  0.00000  0.62500  0.20366  1.0000
  Ti  Ti204     1.0  0.83333  0.50000  0.20366  1.0000
  O   O610      1.0  0.83333  0.62500  0.20366  1.0000
  O   O611      1.0  0.75000  0.50000  0.22483  1.0000
  O   O612      1.0  0.91667  0.50000  0.22483  1.0000
  Sr  Sr85      1.0  0.83333  0.62500  0.33066  1.0000
  Ti  Ti205     1.0  0.66667  0.50000  0.24599  1.0000
  O   O613      1.0  0.66667  0.62500  0.24599  1.0000
  O   O614      1.0  0.91667  0.50000  0.26716  1.0000
  O   O615      1.0  0.75000  0.50000  0.26716  1.0000
  Sr  Sr86      1.0  0.00000  0.62500  0.28833  1.0000
  Ti  Ti206     1.0  0.83333  0.50000  0.28833  1.0000
  O   O616      1.0  0.83333  0.62500  0.28833  1.0000
  O   O617      1.0  0.75000  0.50000  0.30950  1.0000
  O   O618      1.0  0.91667  0.50000  0.30950  1.0000
  Sr  Sr87      1.0  0.83333  0.62500  0.41533  1.0000
  Ti  Ti207     1.0  0.66667  0.50000  0.33066  1.0000
  O   O619      1.0  0.66667  0.62500  0.33066  1.0000
  O   O620      1.0  0.91667  0.50000  0.35183  1.0000
  O   O621      1.0  0.75000  0.50000  0.35183  1.0000
  Sr  Sr88      1.0  0.00000  0.62500  0.37300  1.0000
  Ti  Ti208     1.0  0.83333  0.50000  0.37300  1.0000
  O   O622      1.0  0.83333  0.62500  0.37300  1.0000
  O   O623      1.0  0.75000  0.50000  0.39416  1.0000
  O   O624      1.0  0.91667  0.50000  0.39416  1.0000
  Sr  Sr89      1.0  0.83333  0.62500  0.50000  1.0000
  Ti  Ti209     1.0  0.66667  0.50000  0.41533  1.0000
  O   O625      1.0  0.66667  0.62500  0.41533  1.0000
  O   O626      1.0  0.91667  0.50000  0.43650  1.0000
  O   O627      1.0  0.75000  0.50000  0.43650  1.0000
  Sr  Sr90      1.0  0.00000  0.62500  0.45767  1.0000
  Ti  Ti210     1.0  0.83333  0.50000  0.45767  1.0000
  O   O628      1.0  0.83333  0.62500  0.45767  1.0000
  O   O629      1.0  0.75000  0.50000  0.47883  1.0000
  O   O630      1.0  0.91667  0.50000  0.47883  1.0000
  Sr  Sr91      1.0  0.83333  0.62500  0.58467  1.0000
  Ti  Ti211     1.0  0.66667  0.50000  0.50000  1.0000
  O   O631      1.0  0.66667  0.62500  0.50000  1.0000
  O   O632      1.0  0.91667  0.50000  0.52117  1.0000
  O   O633      1.0  0.75000  0.50000  0.52117  1.0000
  Sr  Sr92      1.0  0.00000  0.62500  0.54233  1.0000
  Ti  Ti212     1.0  0.83333  0.50000  0.54233  1.0000
  O   O634      1.0  0.83333  0.62500  0.54233  1.0000
  O   O635      1.0  0.75000  0.50000  0.56350  1.0000
  O   O636      1.0  0.91667  0.50000  0.56350  1.0000
  Sr  Sr93      1.0  0.83333  0.62500  0.66934  1.0000
  Ti  Ti213     1.0  0.66667  0.50000  0.58467  1.0000
  O   O637      1.0  0.66667  0.62500  0.58467  1.0000
  O   O638      1.0  0.91667  0.50000  0.60584  1.0000
  O   O639      1.0  0.75000  0.50000  0.60584  1.0000
  Sr  Sr94      1.0  0.00000  0.62500  0.62700  1.0000
  Ti  Ti214     1.0  0.83333  0.50000  0.62700  1.0000
  O   O640      1.0  0.83333  0.62500  0.62700  1.0000
  O   O641      1.0  0.75000  0.50000  0.64817  1.0000
  O   O642      1.0  0.91667  0.50000  0.64817  1.0000
  Sr  Sr95      1.0  0.83333  0.62500  0.75401  1.0000
  Ti  Ti215     1.0  0.66667  0.50000  0.66934  1.0000
  O   O643      1.0  0.66667  0.62500  0.66934  1.0000
  O   O644      1.0  0.91667  0.50000  0.69050  1.0000
  O   O645      1.0  0.75000  0.50000  0.69050  1.0000
  Sr  Sr96      1.0  0.00000  0.62500  0.71167  1.0000
  Ti  Ti216     1.0  0.83333  0.50000  0.71167  1.0000
  O   O646      1.0  0.83333  0.62500  0.71167  1.0000
  O   O647      1.0  0.75000  0.50000  0.73284  1.0000
  O   O648      1.0  0.91667  0.50000  0.73284  1.0000
  Sr  Sr97      1.0  0.83333  0.62500  0.83867  1.0000
  Ti  Ti217     1.0  0.66667  0.50000  0.75401  1.0000
  O   O649      1.0  0.66667  0.62500  0.75401  1.0000
  O   O650      1.0  0.91667  0.50000  0.77517  1.0000
  O   O651      1.0  0.75000  0.50000  0.77517  1.0000
  Sr  Sr98      1.0  0.00000  0.62500  0.79634  1.0000
  Ti  Ti218     1.0  0.83333  0.50000  0.79634  1.0000
  O   O652      1.0  0.83333  0.62500  0.79634  1.0000
  O   O653      1.0  0.75000  0.50000  0.81751  1.0000
  O   O654      1.0  0.91667  0.50000  0.81751  1.0000
  Sr  Sr99      1.0  0.83333  0.62500  0.92334  1.0000
  Ti  Ti219     1.0  0.66667  0.50000  0.83867  1.0000
  O   O655      1.0  0.66667  0.62500  0.83867  1.0000
  O   O656      1.0  0.91667  0.50000  0.85984  1.0000
  O   O657      1.0  0.75000  0.50000  0.85984  1.0000
  Sr  Sr100     1.0  0.00000  0.62500  0.88101  1.0000
  Ti  Ti220     1.0  0.83333  0.50000  0.88101  1.0000
  O   O658      1.0  0.83333  0.62500  0.88101  1.0000
  O   O659      1.0  0.75000  0.50000  0.90218  1.0000
  O   O660      1.0  0.91667  0.50000  0.90218  1.0000
  Sr  Sr101     1.0  0.83333  0.87500  0.16133  1.0000
  Ti  Ti221     1.0  0.66667  0.75000  0.07666  1.0000
  O   O661      1.0  0.66667  0.87500  0.07666  1.0000
  O   O662      1.0  0.91667  0.75000  0.09782  1.0000
  O   O663      1.0  0.75000  0.75000  0.09782  1.0000
  Sr  Sr102     1.0  0.00000  0.87500  0.11899  1.0000
  Ti  Ti222     1.0  0.83333  0.75000  0.11899  1.0000
  O   O664      1.0  0.83333  0.87500  0.11899  1.0000
  O   O665      1.0  0.75000  0.75000  0.14016  1.0000
  O   O666      1.0  0.91667  0.75000  0.14016  1.0000
  Sr  Sr103     1.0  0.83333  0.87500  0.24599  1.0000
  Ti  Ti223     1.0  0.66667  0.75000  0.16133  1.0000
  O   O667      1.0  0.66667  0.87500  0.16133  1.0000
  O   O668      1.0  0.91667  0.75000  0.18249  1.0000
  O   O669      1.0  0.75000  0.75000  0.18249  1.0000
  Sr  Sr104     1.0  0.00000  0.87500  0.20366  1.0000
  Ti  Ti224     1.0  0.83333  0.75000  0.20366  1.0000
  O   O670      1.0  0.83333  0.87500  0.20366  1.0000
  O   O671      1.0  0.75000  0.75000  0.22483  1.0000
  O   O672      1.0  0.91667  0.75000  0.22483  1.0000
  Sr  Sr105     1.0  0.83333  0.87500  0.33066  1.0000
  Ti  Ti225     1.0  0.66667  0.75000  0.24599  1.0000
  O   O673      1.0  0.66667  0.87500  0.24599  1.0000
  O   O674      1.0  0.91667  0.75000  0.26716  1.0000
  O   O675      1.0  0.75000  0.75000  0.26716  1.0000
  Sr  Sr106     1.0  0.00000  0.87500  0.28833  1.0000
  Ti  Ti226     1.0  0.83333  0.75000  0.28833  1.0000
  O   O676      1.0  0.83333  0.87500  0.28833  1.0000
  O   O677      1.0  0.75000  0.75000  0.30950  1.0000
  O   O678      1.0  0.91667  0.75000  0.30950  1.0000
  Sr  Sr107     1.0  0.83333  0.87500  0.41533  1.0000
  Ti  Ti227     1.0  0.66667  0.75000  0.33066  1.0000
  O   O679      1.0  0.66667  0.87500  0.33066  1.0000
  O   O680      1.0  0.91667  0.75000  0.35183  1.0000
  O   O681      1.0  0.75000  0.75000  0.35183  1.0000
  Sr  Sr108     1.0  0.00000  0.87500  0.37300  1.0000
  Ti  Ti228     1.0  0.83333  0.75000  0.37300  1.0000
  O   O682      1.0  0.83333  0.87500  0.37300  1.0000
  O   O683      1.0  0.75000  0.75000  0.39416  1.0000
  O   O684      1.0  0.91667  0.75000  0.39416  1.0000
  Sr  Sr109     1.0  0.83333  0.87500  0.50000  1.0000
  Ti  Ti229     1.0  0.66667  0.75000  0.41533  1.0000
  O   O685      1.0  0.66667  0.87500  0.41533  1.0000
  O   O686      1.0  0.91667  0.75000  0.43650  1.0000
  O   O687      1.0  0.75000  0.75000  0.43650  1.0000
  Sr  Sr110     1.0  0.00000  0.87500  0.45767  1.0000
  Ti  Ti230     1.0  0.83333  0.75000  0.45767  1.0000
  O   O688      1.0  0.83333  0.87500  0.45767  1.0000
  O   O689      1.0  0.75000  0.75000  0.47883  1.0000
  O   O690      1.0  0.91667  0.75000  0.47883  1.0000
  Sr  Sr111     1.0  0.83333  0.87500  0.58467  1.0000
  Ti  Ti231     1.0  0.66667  0.75000  0.50000  1.0000
  O   O691      1.0  0.66667  0.87500  0.50000  1.0000
  O   O692      1.0  0.91667  0.75000  0.52117  1.0000
  O   O693      1.0  0.75000  0.75000  0.52117  1.0000
  Sr  Sr112     1.0  0.00000  0.87500  0.54233  1.0000
  Ti  Ti232     1.0  0.83333  0.75000  0.54233  1.0000
  O   O694      1.0  0.83333  0.87500  0.54233  1.0000
  O   O695      1.0  0.75000  0.75000  0.56350  1.0000
  O   O696      1.0  0.91667  0.75000  0.56350  1.0000
  Sr  Sr113     1.0  0.83333  0.87500  0.66934  1.0000
  Ti  Ti233     1.0  0.66667  0.75000  0.58467  1.0000
  O   O697      1.0  0.66667  0.87500  0.58467  1.0000
  O   O698      1.0  0.91667  0.75000  0.60584  1.0000
  O   O699      1.0  0.75000  0.75000  0.60584  1.0000
  Sr  Sr114     1.0  0.00000  0.87500  0.62700  1.0000
  Ti  Ti234     1.0  0.83333  0.75000  0.62700  1.0000
  O   O700      1.0  0.83333  0.87500  0.62700  1.0000
  O   O701      1.0  0.75000  0.75000  0.64817  1.0000
  O   O702      1.0  0.91667  0.75000  0.64817  1.0000
  Sr  Sr115     1.0  0.83333  0.87500  0.75401  1.0000
  Ti  Ti235     1.0  0.66667  0.75000  0.66934  1.0000
  O   O703      1.0  0.66667  0.87500  0.66934  1.0000
  O   O704      1.0  0.91667  0.75000  0.69050  1.0000
  O   O705      1.0  0.75000  0.75000  0.69050  1.0000
  Sr  Sr116     1.0  0.00000  0.87500  0.71167  1.0000
  Ti  Ti236     1.0  0.83333  0.75000  0.71167  1.0000
  O   O706      1.0  0.83333  0.87500  0.71167  1.0000
  O   O707      1.0  0.75000  0.75000  0.73284  1.0000
  O   O708      1.0  0.91667  0.75000  0.73284  1.0000
  Sr  Sr117     1.0  0.83333  0.87500  0.83867  1.0000
  Ti  Ti237     1.0  0.66667  0.75000  0.75401  1.0000
  O   O709      1.0  0.66667  0.87500  0.75401  1.0000
  O   O710      1.0  0.91667  0.75000  0.77517  1.0000
  O   O711      1.0  0.75000  0.75000  0.77517  1.0000
  Sr  Sr118     1.0  0.00000  0.87500  0.79634  1.0000
  Ti  Ti238     1.0  0.83333  0.75000  0.79634  1.0000
  O   O712      1.0  0.83333  0.87500  0.79634  1.0000
  O   O713      1.0  0.75000  0.75000  0.81751  1.0000
  O   O714      1.0  0.91667  0.75000  0.81751  1.0000
  Sr  Sr119     1.0  0.83333  0.87500  0.92334  1.0000
  Ti  Ti239     1.0  0.66667  0.75000  0.83867  1.0000
  O   O715      1.0  0.66667  0.87500  0.83867  1.0000
  O   O716      1.0  0.91667  0.75000  0.85984  1.0000
  O   O717      1.0  0.75000  0.75000  0.85984  1.0000
  Sr  Sr120     1.0  0.00000  0.87500  0.88101  1.0000
  Ti  Ti240     1.0  0.83333  0.75000  0.88101  1.0000
  O   O718      1.0  0.83333  0.87500  0.88101  1.0000
  O   O719      1.0  0.75000  0.75000  0.90218  1.0000
  O   O720      1.0  0.91667  0.75000  0.90218  1.0000
